MATERIAL CATALYST
SITE/NI_SURFACE/ SDEN/3.09E-9/
CH3(S) CH2(S) CH(S) C(S) H(S) NI(S) H2O(S) CO(S) CO2(S) CH3OH(S) CH3O(S) CH2O(S) CHO(S) COOH(S)
HCOO(S)/2.0/ O(S) OH(S)
END

THERMO
300.0 1000.0 5000.0
CH3(S)           1212688C   1H   3O   0NI  1S   300.000  5000.000 1000.00      1
 1.68347900e+00 1.02372400e-02-3.87512900e-06 6.78558500e-10-4.50342300e-14    2
-1.00807900e+04 9.62339500e+00 7.78741500e-01 1.74766800e-02-2.78340900e-05    3
 3.04970800e-08-1.22393100e-11-9.82522900e+03 1.37221900e+01                   4
CH2(S)            121238C   1H   2O   0NI  1S   300.000  5000.000 1000.00      1
 1.68347900e+00 1.02372400e-02-3.87512900e-06 6.78558500e-10-4.50342300e-14    2
-1.00807900e+04 9.62339500e+00 7.78741500e-01 1.74766800e-02-2.78340900e-05    3
 3.04970800e-08-1.22393100e-11-9.82522900e+03 1.37221900e+01                   4
CH(S)             121288C   1H   1O   0NI  1S   300.000  5000.000 1000.00      1
 1.68347900e+00 1.02372400e-02-3.87512900e-06 6.78558500e-10-4.50342300e-14    2
-1.00807900e+04 9.62339500e+00 7.78741500e-01 1.74766800e-02-2.78340900e-05    3
 3.04970800e-08-1.22393100e-11-9.82522900e+03 1.37221900e+01                   4
C(S)              121288C   1H   0O   0NI  1S   300.000  5000.000 1000.00      1
 1.68347900e+00 1.02372400e-02-3.87512900e-06 6.78558500e-10-4.50342300e-14    2
-1.00807900e+04 9.62339500e+00 7.78741500e-01 1.74766800e-02-2.78340900e-05    3
 3.04970800e-08-1.22393100e-11-9.82522900e+03 1.37221900e+01                   4
H(S)              121288C   0H   1O   0NI  1S   300.000  5000.000 1000.00      1
 1.68347900e+00 1.02372400e-02-3.87512900e-06 6.78558500e-10-4.50342300e-14    2
-1.00807900e+04 9.62339500e+00 7.78741500e-01 1.74766800e-02-2.78340900e-05    3
 3.04970800e-08-1.22393100e-11-9.82522900e+03 1.37221900e+01                   4
NI(S)             121288C   0H   0O   0NI  1S   300.000  5000.000 1000.00      1
 1.68347900e+00 1.02372400e-02-3.87512900e-06 6.78558500e-10-4.50342300e-14    2
-1.00807900e+04 9.62339500e+00 7.78741500e-01 1.74766800e-02-2.78340900e-05    3
 3.04970800e-08-1.22393100e-11-9.82522900e+03 1.37221900e+01                   4
H2O(S)            121288C   0H   2O   1NI  1S   300.000  5000.000 1000.00      1
 1.68347900e+00 1.02372400e-02-3.87512900e-06 6.78558500e-10-4.50342300e-14    2
-1.00807900e+04 9.62339500e+00 7.78741500e-01 1.74766800e-02-2.78340900e-05    3
 3.04970800e-08-1.22393100e-11-9.82522900e+03 1.37221900e+01                   4
CO(S)             121288C   1H   0O   1NI  1S   300.000  5000.000 1000.00      1
 1.68347900e+00 1.02372400e-02-3.87512900e-06 6.78558500e-10-4.50342300e-14    2
-1.00807900e+04 9.62339500e+00 7.78741500e-01 1.74766800e-02-2.78340900e-05    3
 3.04970800e-08-1.22393100e-11-9.82522900e+03 1.37221900e+01                   4
CO2(S)            121288C   1H   0O   2NI  1S   300.000  5000.000 1000.00      1
 1.68347900e+00 1.02372400e-02-3.87512900e-06 6.78558500e-10-4.50342300e-14    2
-1.00807900e+04 9.62339500e+00 7.78741500e-01 1.74766800e-02-2.78340900e-05    3
 3.04970800e-08-1.22393100e-11-9.82522900e+03 1.37221900e+01                   4
CH3OH(S)          121288C   1H   4O   1NI  1S   300.000  5000.000 1000.00      1
 1.68347900e+00 1.02372400e-02-3.87512900e-06 6.78558500e-10-4.50342300e-14    2
-1.00807900e+04 9.62339500e+00 7.78741500e-01 1.74766800e-02-2.78340900e-05    3
 3.04970800e-08-1.22393100e-11-9.82522900e+03 1.37221900e+01                   4
CH3O(S)           121288C   1H   3O   1NI  1S   300.000  5000.000 1000.00      1
 1.68347900e+00 1.02372400e-02-3.87512900e-06 6.78558500e-10-4.50342300e-14    2
-1.00807900e+04 9.62339500e+00 7.78741500e-01 1.74766800e-02-2.78340900e-05    3
 3.04970800e-08-1.22393100e-11-9.82522900e+03 1.37221900e+01                   4
CH2O(S)           121288C   1H   2O   1NI  1S   300.000  5000.000 1000.00      1
 1.68347900e+00 1.02372400e-02-3.87512900e-06 6.78558500e-10-4.50342300e-14    2
-1.00807900e+04 9.62339500e+00 7.78741500e-01 1.74766800e-02-2.78340900e-05    3
 3.04970800e-08-1.22393100e-11-9.82522900e+03 1.37221900e+01                   4
CHO(S)            121288C   1H   1O   1NI  1S   300.000  5000.000 1000.00      1
 1.68347900e+00 1.02372400e-02-3.87512900e-06 6.78558500e-10-4.50342300e-14    2
-1.00807900e+04 9.62339500e+00 7.78741500e-01 1.74766800e-02-2.78340900e-05    3
 3.04970800e-08-1.22393100e-11-9.82522900e+03 1.37221900e+01                   4
COOH(S)           121288C   1H   1O   2NI  1S   300.000  5000.000 1000.00      1
 1.68347900e+00 1.02372400e-02-3.87512900e-06 6.78558500e-10-4.50342300e-14    2
-1.00807900e+04 9.62339500e+00 7.78741500e-01 1.74766800e-02-2.78340900e-05    3
 3.04970800e-08-1.22393100e-11-9.82522900e+03 1.37221900e+01                   4
HCOO(S)           121288C   1H   1O   2NI  2S   300.000  5000.000 1000.00      1
 1.68347900e+00 1.02372400e-02-3.87512900e-06 6.78558500e-10-4.50342300e-14    2
-1.00807900e+04 9.62339500e+00 7.78741500e-01 1.74766800e-02-2.78340900e-05    3
 3.04970800e-08-1.22393100e-11-9.82522900e+03 1.37221900e+01                   4
O(S)              121288C   0H   0O   1NI  1S   300.000  5000.000 1000.00      1
 1.68347900e+00 1.02372400e-02-3.87512900e-06 6.78558500e-10-4.50342300e-14    2
-1.00807900e+04 9.62339500e+00 7.78741500e-01 1.74766800e-02-2.78340900e-05    3
 3.04970800e-08-1.22393100e-11-9.82522900e+03 1.37221900e+01                   4
OH(S)             121288C   0H   1O   1NI  1S   300.000  5000.000 1000.00      1
 1.68347900e+00 1.02372400e-02-3.87512900e-06 6.78558500e-10-4.50342300e-14    2
-1.00807900e+04 9.62339500e+00 7.78741500e-01 1.74766800e-02-2.78340900e-05    3
 3.04970800e-08-1.22393100e-11-9.82522900e+03 1.37221900e+01                   4
END

REACTIONS NONCON SITE KJOULES/MOLE 

!====================CH3OH adsorb ===========================

CH3OH+NI(S)=>CH3OH(S)   2.5E+09 0.5 0

CH3OH(S)=>CH3OH+NI(S)  2.63E+21 -2.06 29.2847

!=================2=======================

!CH3OH(S)+OH(S)=>CH3O(S)+H2O(S) 5.81E+12	-0.02 10.1116

!CH3O(S)+H2O(S)=>CH3OH(S)+OH(S) 4.35E+13	0.09 33.9962

CH3OH(S)+NI(S)=>CH3O(S)+H(S) 3.65E+30	-5.71 16.3615

CH3O(S)+H(S)=>CH3OH(S)+NI(S) 4.35E+13	0.09 57.6346

!==============3-7===============


CH3O(S)+NI(S)=>CH2O(S)+H(S) 2.85E+25	-4.23 85.8385

CH2O(S)+H(S)=>CH3O(S)+NI(S) 3.55E+14	-0.13 65.8076

CH2O(S)+NI(S)=>CHO(S)+H(S) 8.19E+17	-1.74 24.8769

CHO(S)+H(S)=>CH2O(S)+NI(S) 2.72E+12	0.35 66.4769

CHO(S)+NI(S)=>CO(S)+H(S) 4.38E+15	-0.68 33.7424

CO(S)+H(S)=>CHO(S)+NI(S) 7.88E+09	1.16 151.2115

CHO(S)+NI(S)=>CH(S)+O(S)         2.88E+13      -0.21608           100.4134133

CH(S)+O(S)=>CHO(S)+NI(S)            2.00E+13          0.00235         120.9136616

CH(S)+NI(S)=>C(S)+H(S)     4.48E18   -1.47    126.8754

C(S)+H(S)=>CH(S)+NI(S)     1.78E15    -0.4    79.87496166


!============8-10======================

CO(S)+O(S)=>CO2(S)+NI(S) 1.79E+13	0.09 134.8000

CO2(S)+NI(S)=>CO(S)+O(S) 1.77E+10	0.76 38.2000

OH(S)+NI(S)=>O(S)+H(S) 2.07E+28	-5.06 95.8616

O(S)+H(S)=>OH(S)+NI(S) 1.91E+18	-1.43 109.9

!H2O(S)+O(S)=>OH(S)+OH(S) 3.89E+19	-2.23 13.4539

!OH(S)+OH(S)=>H2O(S)+O(S) 1.36E+17	-1.17 45.4847

H2O(S)+NI(S)=>OH(S)+H(S) 5.18E+29      -5.73  11.5308

OH(S)+H(S)=>H2O(S)+NI(S)  1.67E+17    -1.04   53.4693

!=============11-13======================

H2+2NI(S)=>H(S)+H(S) 1.84E7 2.41 5.7
                     
H(S)+H(S)=>H2+2NI(S) 3.39E+11	1.61 86.3

H2O+NI(S)=>H2O(S) 2.01E11 0.49971 0

H2O(S)=>H2O+NI(S) 4.84E+21	-2.46 38.0308

!H2O(S)=>H2O+NI(S) 4.84E+21	-2.46 43.8

CO+NI(S)=>CO(S) 1.6E11 0.49999 0

CO(S)=>CO+NI(S) 8.46E+20	-1.69 191.0307

!==============14=============================

CO2+NI(S)=>CO2(S) 4.44E10 1.19 23.7054

CO2(S)=>CO2+NI(S) 6.29E+12	0.33 26.0576

              
END
